*Heading
** Generated by OSAM INP Converter

*Part, name=CompisteIGriderBridgeSpans100_SA

*NODE
1,           0, -3.3975e-13,-1.43894e-12
2,        1000, -3.3975e-13,-1.43894e-12
3,       20000, -3.3975e-13,-1.43894e-12
4,       21000, -3.3975e-13,-1.43894e-12
5,       40000, -3.3975e-13,-1.43894e-12
6,       41000, -3.3975e-13,-1.43894e-12
7,       60000, -3.3975e-13,-1.43894e-12
8,       61000, -3.3975e-13,-1.43894e-12
9,       80000, -3.3975e-13,-1.43894e-12
10,       81000, -3.3975e-13,-1.43894e-12
11,      100000, -3.3975e-13,-1.43894e-12
12,      101000, -3.3975e-13,-1.43894e-12
13,      120000, -3.3975e-13,-1.43894e-12
14,      121000, -3.3975e-13,-1.43894e-12
15,      140000, -3.3975e-13,-1.43894e-12
16,      141000, -3.3975e-13,-1.43894e-12
17,      160000, -3.3975e-13,-1.43894e-12
18,      161000, -3.3975e-13,-1.43894e-12
19,      180000, -3.3975e-13,-1.43894e-12
20,      181000, -3.3975e-13,-1.43894e-12
** ... 37999 like lines cut


*ELEMENT,  TYPE=B31
1,       1,       2
2,       3,       4
3,       5,       6
4,       7,       8
5,       9,      10
6,      11,      12
7,      13,      14
8,      15,      16
9,      17,      18
10,      19,      20
11,      21,      22
12,      23,      24
13,      25,      26
14,      27,      28
15,      29,      30
16,      31,      32
17,      33,      34
18,      35,      36
19,      37,      38
20,      39,      40
** ... 19985 like lines cut

*ELEMENT,  TYPE=S4R
20006,   20011,   20012,   20013,   20014
20007,   20015,   20016,   20017,   20018
20008,   20019,   20020,   20021,   20022
20009,   20023,   20024,   20025,   20026
20010,   20027,   20028,   20029,   20030
20011,   20031,   20032,   20033,   20034
20012,   20035,   20036,   20037,   20038
20013,   20039,   20040,   20041,   20042
20014,   20043,   20044,   20045,   20046
20015,   20047,   20048,   20049,   20050
20016,   20051,   20052,   20053,   20054
20017,   20055,   20056,   20057,   20058
20018,   20059,   20060,   20061,   20062
20019,   20063,   20064,   20065,   20066
20020,   20067,   20068,   20069,   20070
20021,   20071,   20072,   20073,   20074
20022,   20075,   20076,   20077,   20078
20023,   20079,   20080,   20081,   20082
20024,   20083,   20084,   20085,   20086
20025,   20087,   20088,   20089,   20090
** ... 23980 like lines cut


*ELSET, ELSET=set0
   1,    2,    3,    4,    5,    6,    7,    8,    9,   10,   11,   12,   13,   14,   15,   16
  17,   18,   19,   20,   21,   22,   23,   24,   25,   26,   27,   28,   29,   30,   31,   32
  33,   34,   35,   36,   37,   38,   39,   40,   41,   42,   43,   44,   45,   46,   47,   48
  49,   50,   51,   52,   53,   54,   55,   56,   57,   58,   59,   60,   61,   62,   63,   64
  65,   66,   67,   68,   69,   70,   71,   72,   73,   74,   75,   76,   77,   78,   79,   80
  81,   82,   83,   84,   85,   86,   87,   88,   89,   90,   91,   92,   93,   94,   95,   96
  97,   98,   99,  100,  101,  102,  103,  104,  105,  106,  107,  108,  109,  110,  111,  112
 113,  114,  115,  116,  117,  118,  119,  120,  121,  122,  123,  124,  125,  126,  127,  128
 129,  130,  131,  132,  133,  134,  135,  136,  137,  138,  139,  140,  141,  142,  143,  144
 145,  146,  147,  148,  149,  150,  151,  152,  153,  154,  155,  156,  157,  158,  159,  160
 161,  162,  163,  164,  165,  166,  167,  168,  169,  170,  171,  172,  173,  174,  175,  176
 177,  178,  179,  180,  181,  182,  183,  184,  185,  186,  187,  188,  189,  190,  191,  192
 193,  194,  195,  196,  197,  198,  199,  200,  201,  202,  203,  204,  205,  206,  207,  208
 209,  210,  211,  212,  213,  214,  215,  216,  217,  218,  219,  220,  221,  222,  223,  224
 225,  226,  227,  228,  229,  230,  231,  232,  233,  234,  235,  236,  237,  238,  239,  240
 241,  242,  243,  244,  245,  246,  247,  248,  249,  250,  251,  252,  253,  254,  255,  256
 257,  258,  259,  260,  261,  262,  263,  264,  265,  266,  267,  268,  269,  270,  271,  272
 273,  274,  275,  276,  277,  278,  279,  280,  281,  282,  283,  284,  285,  286,  287,  288
 289,  290,  291,  292,  293,  294,  295,  296,  297,  298,  299,  300,  301,  302,  303,  304
 305,  306,  307,  308,  309,  310,  311,  312,  313,  314,  315,  316,  317,  318,  319,  320
** ... 605 like lines cut

** Section: I-ShapeGirders_S355  Profile: I-ShapeGirders_S355
*Beam General Section, elset=set0, material=S355, section=I
200.0, 1200.0, 500.0, 500.0, 25.0, 25.0, 16.0
0.0, 1.0, 0.0

*ELSET, ELSET=set1
10001, 10002, 10003, 10004, 10005, 10006, 10007, 10008, 10009, 10010, 10011, 10012, 10013, 10014, 10015, 10016
10017, 10018, 10019, 10020, 10021, 10022, 10023, 10024, 10025, 10026, 10027, 10028, 10029, 10030, 10031, 10032
10033, 10034, 10035, 10036, 10037, 10038, 10039, 10040, 10041, 10042, 10043, 10044, 10045, 10046, 10047, 10048
10049, 10050, 10051, 10052, 10053, 10054, 10055, 10056, 10057, 10058, 10059, 10060, 10061, 10062, 10063, 10064
10065, 10066, 10067, 10068, 10069, 10070, 10071, 10072, 10073, 10074, 10075, 10076, 10077, 10078, 10079, 10080
10081, 10082, 10083, 10084, 10085, 10086, 10087, 10088, 10089, 10090, 10091, 10092, 10093, 10094, 10095, 10096
10097, 10098, 10099, 10100, 10101, 10102, 10103, 10104, 10105, 10106, 10107, 10108, 10109, 10110, 10111, 10112
10113, 10114, 10115, 10116, 10117, 10118, 10119, 10120, 10121, 10122, 10123, 10124, 10125, 10126, 10127, 10128
10129, 10130, 10131, 10132, 10133, 10134, 10135, 10136, 10137, 10138, 10139, 10140, 10141, 10142, 10143, 10144
10145, 10146, 10147, 10148, 10149, 10150, 10151, 10152, 10153, 10154, 10155, 10156, 10157, 10158, 10159, 10160
10161, 10162, 10163, 10164, 10165, 10166, 10167, 10168, 10169, 10170, 10171, 10172, 10173, 10174, 10175, 10176
10177, 10178, 10179, 10180, 10181, 10182, 10183, 10184, 10185, 10186, 10187, 10188, 10189, 10190, 10191, 10192
10193, 10194, 10195, 10196, 10197, 10198, 10199, 10200, 10201, 10202, 10203, 10204, 10205, 10206, 10207, 10208
10209, 10210, 10211, 10212, 10213, 10214, 10215, 10216, 10217, 10218, 10219, 10220, 10221, 10222, 10223, 10224
10225, 10226, 10227, 10228, 10229, 10230, 10231, 10232, 10233, 10234, 10235, 10236, 10237, 10238, 10239, 10240
10241, 10242, 10243, 10244, 10245, 10246, 10247, 10248, 10249, 10250, 10251, 10252, 10253, 10254, 10255, 10256
10257, 10258, 10259, 10260, 10261, 10262, 10263, 10264, 10265, 10266, 10267, 10268, 10269, 10270, 10271, 10272
10273, 10274, 10275, 10276, 10277, 10278, 10279, 10280, 10281, 10282, 10283, 10284, 10285, 10286, 10287, 10288
10289, 10290, 10291, 10292, 10293, 10294, 10295, 10296, 10297, 10298, 10299, 10300, 10301, 10302, 10303, 10304
10305, 10306, 10307, 10308, 10309, 10310, 10311, 10312, 10313, 10314, 10315, 10316, 10317, 10318, 10319, 10320
** ... 606 like lines cut

** Section: Rigid_Rigid  Profile: Rigid_Rigid
*Beam General Section, elset=set1, material=Rigid, section=RECT
100.0, 100.0
1.0, 0.0, 0.0

*ELSET, ELSET=set2
20006, 20007, 20008, 20009, 20010, 20011, 20012, 20013, 20014, 20015, 20016, 20017, 20018, 20019, 20020, 20021
20022, 20023, 20024, 20025, 20026, 20027, 20028, 20029, 20030, 20031, 20032, 20033, 20034, 20035, 20036, 20037
20038, 20039, 20040, 20041, 20042, 20043, 20044, 20045, 20046, 20047, 20048, 20049, 20050, 20051, 20052, 20053
20054, 20055, 20056, 20057, 20058, 20059, 20060, 20061, 20062, 20063, 20064, 20065, 20066, 20067, 20068, 20069
20070, 20071, 20072, 20073, 20074, 20075, 20076, 20077, 20078, 20079, 20080, 20081, 20082, 20083, 20084, 20085
20086, 20087, 20088, 20089, 20090, 20091, 20092, 20093, 20094, 20095, 20096, 20097, 20098, 20099, 20100, 20101
20102, 20103, 20104, 20105, 20106, 20107, 20108, 20109, 20110, 20111, 20112, 20113, 20114, 20115, 20116, 20117
20118, 20119, 20120, 20121, 20122, 20123, 20124, 20125, 20126, 20127, 20128, 20129, 20130, 20131, 20132, 20133
20134, 20135, 20136, 20137, 20138, 20139, 20140, 20141, 20142, 20143, 20144, 20145, 20146, 20147, 20148, 20149
20150, 20151, 20152, 20153, 20154, 20155, 20156, 20157, 20158, 20159, 20160, 20161, 20162, 20163, 20164, 20165
20166, 20167, 20168, 20169, 20170, 20171, 20172, 20173, 20174, 20175, 20176, 20177, 20178, 20179, 20180, 20181
20182, 20183, 20184, 20185, 20186, 20187, 20188, 20189, 20190, 20191, 20192, 20193, 20194, 20195, 20196, 20197
20198, 20199, 20200, 20201, 20202, 20203, 20204, 20205, 20206, 20207, 20208, 20209, 20210, 20211, 20212, 20213
20214, 20215, 20216, 20217, 20218, 20219, 20220, 20221, 20222, 20223, 20224, 20225, 20226, 20227, 20228, 20229
20230, 20231, 20232, 20233, 20234, 20235, 20236, 20237, 20238, 20239, 20240, 20241, 20242, 20243, 20244, 20245
20246, 20247, 20248, 20249, 20250, 20251, 20252, 20253, 20254, 20255, 20256, 20257, 20258, 20259, 20260, 20261
20262, 20263, 20264, 20265, 20266, 20267, 20268, 20269, 20270, 20271, 20272, 20273, 20274, 20275, 20276, 20277
20278, 20279, 20280, 20281, 20282, 20283, 20284, 20285, 20286, 20287, 20288, 20289, 20290, 20291, 20292, 20293
20294, 20295, 20296, 20297, 20298, 20299, 20300, 20301, 20302, 20303, 20304, 20305, 20306, 20307, 20308, 20309
20310, 20311, 20312, 20313, 20314, 20315, 20316, 20317, 20318, 20319, 20320, 20321, 20322, 20323, 20324, 20325
** ... 1480 like lines cut

*Shell Section, ELSET=set2, MATERIAL=C40/50
200.0

*End Part

*ASSEMBLY, NAME=CompisteIGriderBridgeSpans100_SA

*INSTANCE, NAME=CompisteIGriderBridgeSpans100_SA-1, PART=CompisteIGriderBridgeSpans100_SA

*END INSTANCE


*END ASSEMBLY

**
** MATERIALS
**
*Material, name=C40/50
*Density
2.5e-09,
*Elastic
35000.0, 0.2
*Material, name=S355
*Density
7.8e-09,
*Elastic
210000.0, 0.3
*Material, name=Rigid
*Elastic
100000000.0, 0.0
**
** BOUNDARY CONDITIONS
**

*Step, name=Step-1, nlgeom=NO, inc=5
*Static, direct
0.2, 1.,
**
** OUTPUT REQUESTS
**
*RESTART, WRITE, FREQUENCY=0
*OUTPUT, FIELD, VARIABLE=PRESELECT
*OUTPUT, HISTORY, VARIABLE=PRESELECT
*END STEP
