*Heading
** Generated by OSAM INP Converter

*Part, name=CompisteIGriderBridgeSpans5_SA

*NODE
1,           0, -3.3975e-13,-1.43894e-12
2,        1000, -3.3975e-13,-1.43894e-12
3,       20000, -3.3975e-13,-1.43894e-12
4,       21000, -3.3975e-13,-1.43894e-12
5,       40000, -3.3975e-13,-1.43894e-12
6,       41000, -3.3975e-13,-1.43894e-12
7,       60000, -3.3975e-13,-1.43894e-12
8,       61000, -3.3975e-13,-1.43894e-12
9,       80000, -3.3975e-13,-1.43894e-12
10,       81000, -3.3975e-13,-1.43894e-12
11,        2000, -3.3975e-13,-1.43894e-12
12,       22000, -3.3975e-13,-1.43894e-12
13,       42000, -3.3975e-13,-1.43894e-12
14,       62000, -3.3975e-13,-1.43894e-12
15,       82000, -3.3975e-13,-1.43894e-12
16,        3000, -3.3975e-13,-1.43894e-12
17,       23000, -3.3975e-13,-1.43894e-12
18,       43000, -3.3975e-13,-1.43894e-12
19,       63000, -3.3975e-13,-1.43894e-12
20,       83000, -3.3975e-13,-1.43894e-12
** ... 1899 like lines cut


*ELEMENT,  TYPE=B31
1,       1,       2
2,       3,       4
3,       5,       6
4,       7,       8
5,       9,      10
6,       2,      11
7,       4,      12
8,       6,      13
9,       8,      14
10,      10,      15
11,      11,      16
12,      12,      17
13,      13,      18
14,      14,      19
15,      15,      20
16,      16,      21
17,      17,      22
18,      18,      23
19,      19,      24
20,      20,      25
** ... 985 like lines cut

*ELEMENT,  TYPE=S4R
1006,    1011,    1012,    1013,    1014
1007,    1015,    1016,    1017,    1018
1008,    1019,    1020,    1021,    1022
1009,    1023,    1024,    1025,    1026
1010,    1027,    1028,    1029,    1030
1011,    1012,     915,     910,    1013
1012,    1016,     916,     911,    1017
1013,    1020,     917,     912,    1021
1014,    1024,     918,     913,    1025
1015,    1028,     919,     914,    1029
1016,     915,    1031,    1032,     910
1017,     916,    1033,    1034,     911
1018,     917,    1035,    1036,     912
1019,     918,    1037,    1038,     913
1020,     919,    1039,    1040,     914
1021,    1031,     814,     809,    1032
1022,    1033,     815,     810,    1034
1023,    1035,     816,     811,    1036
1024,    1037,     817,     812,    1038
1025,    1039,     818,     813,    1040
** ... 1180 like lines cut


*ELSET, ELSET=set0
   1,    2,    3,    4,    5,    6,    7,    8,    9,   10,   11,   12,   13,   14,   15,   16
  17,   18,   19,   20,   21,   22,   23,   24,   25,   26,   27,   28,   29,   30,   31,   32
  33,   34,   35,   36,   37,   38,   39,   40,   41,   42,   43,   44,   45,   46,   47,   48
  49,   50,   51,   52,   53,   54,   55,   56,   57,   58,   59,   60,   61,   62,   63,   64
  65,   66,   67,   68,   69,   70,   71,   72,   73,   74,   75,   76,   77,   78,   79,   80
  81,   82,   83,   84,   85,   86,   87,   88,   89,   90,   91,   92,   93,   94,   95,   96
  97,   98,   99,  100,  101,  102,  103,  104,  105,  106,  107,  108,  109,  110,  111,  112
 113,  114,  115,  116,  117,  118,  119,  120,  121,  122,  123,  124,  125,  126,  127,  128
 129,  130,  131,  132,  133,  134,  135,  136,  137,  138,  139,  140,  141,  142,  143,  144
 145,  146,  147,  148,  149,  150,  151,  152,  153,  154,  155,  156,  157,  158,  159,  160
 161,  162,  163,  164,  165,  166,  167,  168,  169,  170,  171,  172,  173,  174,  175,  176
 177,  178,  179,  180,  181,  182,  183,  184,  185,  186,  187,  188,  189,  190,  191,  192
 193,  194,  195,  196,  197,  198,  199,  200,  201,  202,  203,  204,  205,  206,  207,  208
 209,  210,  211,  212,  213,  214,  215,  216,  217,  218,  219,  220,  221,  222,  223,  224
 225,  226,  227,  228,  229,  230,  231,  232,  233,  234,  235,  236,  237,  238,  239,  240
 241,  242,  243,  244,  245,  246,  247,  248,  249,  250,  251,  252,  253,  254,  255,  256
 257,  258,  259,  260,  261,  262,  263,  264,  265,  266,  267,  268,  269,  270,  271,  272
 273,  274,  275,  276,  277,  278,  279,  280,  281,  282,  283,  284,  285,  286,  287,  288
 289,  290,  291,  292,  293,  294,  295,  296,  297,  298,  299,  300,  301,  302,  303,  304
 305,  306,  307,  308,  309,  310,  311,  312,  313,  314,  315,  316,  317,  318,  319,  320
** ... 12 like lines cut

** Section: I-ShapeGirders_S355  Profile: I-ShapeGirders_S355
*Beam General Section, elset=set0, material=S355, section=I
200.0, 1200.0, 500.0, 500.0, 25.0, 25.0, 16.0
0.0, 1.0, 0.0

*ELSET, ELSET=set1
 501,  502,  503,  504,  505,  506,  507,  508,  509,  510,  511,  512,  513,  514,  515,  516
 517,  518,  519,  520,  521,  522,  523,  524,  525,  526,  527,  528,  529,  530,  531,  532
 533,  534,  535,  536,  537,  538,  539,  540,  541,  542,  543,  544,  545,  546,  547,  548
 549,  550,  551,  552,  553,  554,  555,  556,  557,  558,  559,  560,  561,  562,  563,  564
 565,  566,  567,  568,  569,  570,  571,  572,  573,  574,  575,  576,  577,  578,  579,  580
 581,  582,  583,  584,  585,  586,  587,  588,  589,  590,  591,  592,  593,  594,  595,  596
 597,  598,  599,  600,  601,  602,  603,  604,  605,  606,  607,  608,  609,  610,  611,  612
 613,  614,  615,  616,  617,  618,  619,  620,  621,  622,  623,  624,  625,  626,  627,  628
 629,  630,  631,  632,  633,  634,  635,  636,  637,  638,  639,  640,  641,  642,  643,  644
 645,  646,  647,  648,  649,  650,  651,  652,  653,  654,  655,  656,  657,  658,  659,  660
 661,  662,  663,  664,  665,  666,  667,  668,  669,  670,  671,  672,  673,  674,  675,  676
 677,  678,  679,  680,  681,  682,  683,  684,  685,  686,  687,  688,  689,  690,  691,  692
 693,  694,  695,  696,  697,  698,  699,  700,  701,  702,  703,  704,  705,  706,  707,  708
 709,  710,  711,  712,  713,  714,  715,  716,  717,  718,  719,  720,  721,  722,  723,  724
 725,  726,  727,  728,  729,  730,  731,  732,  733,  734,  735,  736,  737,  738,  739,  740
 741,  742,  743,  744,  745,  746,  747,  748,  749,  750,  751,  752,  753,  754,  755,  756
 757,  758,  759,  760,  761,  762,  763,  764,  765,  766,  767,  768,  769,  770,  771,  772
 773,  774,  775,  776,  777,  778,  779,  780,  781,  782,  783,  784,  785,  786,  787,  788
 789,  790,  791,  792,  793,  794,  795,  796,  797,  798,  799,  800,  801,  802,  803,  804
 805,  806,  807,  808,  809,  810,  811,  812,  813,  814,  815,  816,  817,  818,  819,  820
** ... 12 like lines cut

** Section: Rigid_Rigid  Profile: Rigid_Rigid
*Beam General Section, elset=set1, material=Rigid, section=RECT
100.0, 100.0
1.0, 0.0, 0.0

*ELSET, ELSET=set2
1006, 1007, 1008, 1009, 1010, 1011, 1012, 1013, 1014, 1015, 1016, 1017, 1018, 1019, 1020, 1021
1022, 1023, 1024, 1025, 1026, 1027, 1028, 1029, 1030, 1031, 1032, 1033, 1034, 1035, 1036, 1037
1038, 1039, 1040, 1041, 1042, 1043, 1044, 1045, 1046, 1047, 1048, 1049, 1050, 1051, 1052, 1053
1054, 1055, 1056, 1057, 1058, 1059, 1060, 1061, 1062, 1063, 1064, 1065, 1066, 1067, 1068, 1069
1070, 1071, 1072, 1073, 1074, 1075, 1076, 1077, 1078, 1079, 1080, 1081, 1082, 1083, 1084, 1085
1086, 1087, 1088, 1089, 1090, 1091, 1092, 1093, 1094, 1095, 1096, 1097, 1098, 1099, 1100, 1101
1102, 1103, 1104, 1105, 1106, 1107, 1108, 1109, 1110, 1111, 1112, 1113, 1114, 1115, 1116, 1117
1118, 1119, 1120, 1121, 1122, 1123, 1124, 1125, 1126, 1127, 1128, 1129, 1130, 1131, 1132, 1133
1134, 1135, 1136, 1137, 1138, 1139, 1140, 1141, 1142, 1143, 1144, 1145, 1146, 1147, 1148, 1149
1150, 1151, 1152, 1153, 1154, 1155, 1156, 1157, 1158, 1159, 1160, 1161, 1162, 1163, 1164, 1165
1166, 1167, 1168, 1169, 1170, 1171, 1172, 1173, 1174, 1175, 1176, 1177, 1178, 1179, 1180, 1181
1182, 1183, 1184, 1185, 1186, 1187, 1188, 1189, 1190, 1191, 1192, 1193, 1194, 1195, 1196, 1197
1198, 1199, 1200, 1201, 1202, 1203, 1204, 1205, 1206, 1207, 1208, 1209, 1210, 1211, 1212, 1213
1214, 1215, 1216, 1217, 1218, 1219, 1220, 1221, 1222, 1223, 1224, 1225, 1226, 1227, 1228, 1229
1230, 1231, 1232, 1233, 1234, 1235, 1236, 1237, 1238, 1239, 1240, 1241, 1242, 1243, 1244, 1245
1246, 1247, 1248, 1249, 1250, 1251, 1252, 1253, 1254, 1255, 1256, 1257, 1258, 1259, 1260, 1261
1262, 1263, 1264, 1265, 1266, 1267, 1268, 1269, 1270, 1271, 1272, 1273, 1274, 1275, 1276, 1277
1278, 1279, 1280, 1281, 1282, 1283, 1284, 1285, 1286, 1287, 1288, 1289, 1290, 1291, 1292, 1293
1294, 1295, 1296, 1297, 1298, 1299, 1300, 1301, 1302, 1303, 1304, 1305, 1306, 1307, 1308, 1309
1310, 1311, 1312, 1313, 1314, 1315, 1316, 1317, 1318, 1319, 1320, 1321, 1322, 1323, 1324, 1325
** ... 55 like lines cut

*Shell Section, ELSET=set2, MATERIAL=C40/50
200.0

*End Part

*ASSEMBLY, NAME=CompisteIGriderBridgeSpans5_SA

*INSTANCE, NAME=CompisteIGriderBridgeSpans5_SA-1, PART=CompisteIGriderBridgeSpans5_SA

*END INSTANCE


*END ASSEMBLY

**
** MATERIALS
**
*Material, name=C40/50
*Density
2.5e-09,
*Elastic
35000.0, 0.2
*Material, name=S355
*Density
7.8e-09,
*Elastic
210000.0, 0.3
*Material, name=Rigid
*Elastic
100000000.0, 0.0
**
** BOUNDARY CONDITIONS
**

*Step, name=Step-1, nlgeom=NO, inc=5
*Static, direct
0.2, 1.,
**
** OUTPUT REQUESTS
**
*RESTART, WRITE, FREQUENCY=0
*OUTPUT, FIELD, VARIABLE=PRESELECT
*OUTPUT, HISTORY, VARIABLE=PRESELECT
*END STEP
