*Heading
** Generated by OSAM INP Converter

*Part, name=CompisteIGriderBridgeSpans20_SA

*NODE
1,           0, -3.3975e-13,-1.43894e-12
2,        1000, -3.3975e-13,-1.43894e-12
3,       20000, -3.3975e-13,-1.43894e-12
4,       21000, -3.3975e-13,-1.43894e-12
5,       40000, -3.3975e-13,-1.43894e-12
6,       41000, -3.3975e-13,-1.43894e-12
7,       60000, -3.3975e-13,-1.43894e-12
8,       61000, -3.3975e-13,-1.43894e-12
9,       80000, -3.3975e-13,-1.43894e-12
10,       81000, -3.3975e-13,-1.43894e-12
11,      100000, -3.3975e-13,-1.43894e-12
12,      101000, -3.3975e-13,-1.43894e-12
13,      120000, -3.3975e-13,-1.43894e-12
14,      121000, -3.3975e-13,-1.43894e-12
15,      140000, -3.3975e-13,-1.43894e-12
16,      141000, -3.3975e-13,-1.43894e-12
17,      160000, -3.3975e-13,-1.43894e-12
18,      161000, -3.3975e-13,-1.43894e-12
19,      180000, -3.3975e-13,-1.43894e-12
20,      181000, -3.3975e-13,-1.43894e-12
** ... 7599 like lines cut


*ELEMENT,  TYPE=B31
1,       1,       2
2,       3,       4
3,       5,       6
4,       7,       8
5,       9,      10
6,      11,      12
7,      13,      14
8,      15,      16
9,      17,      18
10,      19,      20
11,      21,      22
12,      23,      24
13,      25,      26
14,      27,      28
15,      29,      30
16,      31,      32
17,      33,      34
18,      35,      36
19,      37,      38
20,      39,      40
** ... 3985 like lines cut

*ELEMENT,  TYPE=S4R
4006,    4011,    4012,    4013,    4014
4007,    4015,    4016,    4017,    4018
4008,    4019,    4020,    4021,    4022
4009,    4023,    4024,    4025,    4026
4010,    4027,    4028,    4029,    4030
4011,    4031,    4032,    4033,    4034
4012,    4035,    4036,    4037,    4038
4013,    4039,    4040,    4041,    4042
4014,    4043,    4044,    4045,    4046
4015,    4047,    4048,    4049,    4050
4016,    4051,    4052,    4053,    4054
4017,    4055,    4056,    4057,    4058
4018,    4059,    4060,    4061,    4062
4019,    4063,    4064,    4065,    4066
4020,    4067,    4068,    4069,    4070
4021,    4071,    4072,    4073,    4074
4022,    4075,    4076,    4077,    4078
4023,    4079,    4080,    4081,    4082
4024,    4083,    4084,    4085,    4086
4025,    4087,    4088,    4089,    4090
** ... 4780 like lines cut


*ELSET, ELSET=set0
   1,    2,    3,    4,    5,    6,    7,    8,    9,   10,   11,   12,   13,   14,   15,   16
  17,   18,   19,   20,   21,   22,   23,   24,   25,   26,   27,   28,   29,   30,   31,   32
  33,   34,   35,   36,   37,   38,   39,   40,   41,   42,   43,   44,   45,   46,   47,   48
  49,   50,   51,   52,   53,   54,   55,   56,   57,   58,   59,   60,   61,   62,   63,   64
  65,   66,   67,   68,   69,   70,   71,   72,   73,   74,   75,   76,   77,   78,   79,   80
  81,   82,   83,   84,   85,   86,   87,   88,   89,   90,   91,   92,   93,   94,   95,   96
  97,   98,   99,  100,  101,  102,  103,  104,  105,  106,  107,  108,  109,  110,  111,  112
 113,  114,  115,  116,  117,  118,  119,  120,  121,  122,  123,  124,  125,  126,  127,  128
 129,  130,  131,  132,  133,  134,  135,  136,  137,  138,  139,  140,  141,  142,  143,  144
 145,  146,  147,  148,  149,  150,  151,  152,  153,  154,  155,  156,  157,  158,  159,  160
 161,  162,  163,  164,  165,  166,  167,  168,  169,  170,  171,  172,  173,  174,  175,  176
 177,  178,  179,  180,  181,  182,  183,  184,  185,  186,  187,  188,  189,  190,  191,  192
 193,  194,  195,  196,  197,  198,  199,  200,  201,  202,  203,  204,  205,  206,  207,  208
 209,  210,  211,  212,  213,  214,  215,  216,  217,  218,  219,  220,  221,  222,  223,  224
 225,  226,  227,  228,  229,  230,  231,  232,  233,  234,  235,  236,  237,  238,  239,  240
 241,  242,  243,  244,  245,  246,  247,  248,  249,  250,  251,  252,  253,  254,  255,  256
 257,  258,  259,  260,  261,  262,  263,  264,  265,  266,  267,  268,  269,  270,  271,  272
 273,  274,  275,  276,  277,  278,  279,  280,  281,  282,  283,  284,  285,  286,  287,  288
 289,  290,  291,  292,  293,  294,  295,  296,  297,  298,  299,  300,  301,  302,  303,  304
 305,  306,  307,  308,  309,  310,  311,  312,  313,  314,  315,  316,  317,  318,  319,  320
** ... 105 like lines cut

** Section: I-ShapeGirders_S355  Profile: I-ShapeGirders_S355
*Beam General Section, elset=set0, material=S355, section=I
200.0, 1200.0, 500.0, 500.0, 25.0, 25.0, 16.0
0.0, 1.0, 0.0

*ELSET, ELSET=set1
2001, 2002, 2003, 2004, 2005, 2006, 2007, 2008, 2009, 2010, 2011, 2012, 2013, 2014, 2015, 2016
2017, 2018, 2019, 2020, 2021, 2022, 2023, 2024, 2025, 2026, 2027, 2028, 2029, 2030, 2031, 2032
2033, 2034, 2035, 2036, 2037, 2038, 2039, 2040, 2041, 2042, 2043, 2044, 2045, 2046, 2047, 2048
2049, 2050, 2051, 2052, 2053, 2054, 2055, 2056, 2057, 2058, 2059, 2060, 2061, 2062, 2063, 2064
2065, 2066, 2067, 2068, 2069, 2070, 2071, 2072, 2073, 2074, 2075, 2076, 2077, 2078, 2079, 2080
2081, 2082, 2083, 2084, 2085, 2086, 2087, 2088, 2089, 2090, 2091, 2092, 2093, 2094, 2095, 2096
2097, 2098, 2099, 2100, 2101, 2102, 2103, 2104, 2105, 2106, 2107, 2108, 2109, 2110, 2111, 2112
2113, 2114, 2115, 2116, 2117, 2118, 2119, 2120, 2121, 2122, 2123, 2124, 2125, 2126, 2127, 2128
2129, 2130, 2131, 2132, 2133, 2134, 2135, 2136, 2137, 2138, 2139, 2140, 2141, 2142, 2143, 2144
2145, 2146, 2147, 2148, 2149, 2150, 2151, 2152, 2153, 2154, 2155, 2156, 2157, 2158, 2159, 2160
2161, 2162, 2163, 2164, 2165, 2166, 2167, 2168, 2169, 2170, 2171, 2172, 2173, 2174, 2175, 2176
2177, 2178, 2179, 2180, 2181, 2182, 2183, 2184, 2185, 2186, 2187, 2188, 2189, 2190, 2191, 2192
2193, 2194, 2195, 2196, 2197, 2198, 2199, 2200, 2201, 2202, 2203, 2204, 2205, 2206, 2207, 2208
2209, 2210, 2211, 2212, 2213, 2214, 2215, 2216, 2217, 2218, 2219, 2220, 2221, 2222, 2223, 2224
2225, 2226, 2227, 2228, 2229, 2230, 2231, 2232, 2233, 2234, 2235, 2236, 2237, 2238, 2239, 2240
2241, 2242, 2243, 2244, 2245, 2246, 2247, 2248, 2249, 2250, 2251, 2252, 2253, 2254, 2255, 2256
2257, 2258, 2259, 2260, 2261, 2262, 2263, 2264, 2265, 2266, 2267, 2268, 2269, 2270, 2271, 2272
2273, 2274, 2275, 2276, 2277, 2278, 2279, 2280, 2281, 2282, 2283, 2284, 2285, 2286, 2287, 2288
2289, 2290, 2291, 2292, 2293, 2294, 2295, 2296, 2297, 2298, 2299, 2300, 2301, 2302, 2303, 2304
2305, 2306, 2307, 2308, 2309, 2310, 2311, 2312, 2313, 2314, 2315, 2316, 2317, 2318, 2319, 2320
** ... 106 like lines cut

** Section: Rigid_Rigid  Profile: Rigid_Rigid
*Beam General Section, elset=set1, material=Rigid, section=RECT
100.0, 100.0
1.0, 0.0, 0.0

*ELSET, ELSET=set2
4006, 4007, 4008, 4009, 4010, 4011, 4012, 4013, 4014, 4015, 4016, 4017, 4018, 4019, 4020, 4021
4022, 4023, 4024, 4025, 4026, 4027, 4028, 4029, 4030, 4031, 4032, 4033, 4034, 4035, 4036, 4037
4038, 4039, 4040, 4041, 4042, 4043, 4044, 4045, 4046, 4047, 4048, 4049, 4050, 4051, 4052, 4053
4054, 4055, 4056, 4057, 4058, 4059, 4060, 4061, 4062, 4063, 4064, 4065, 4066, 4067, 4068, 4069
4070, 4071, 4072, 4073, 4074, 4075, 4076, 4077, 4078, 4079, 4080, 4081, 4082, 4083, 4084, 4085
4086, 4087, 4088, 4089, 4090, 4091, 4092, 4093, 4094, 4095, 4096, 4097, 4098, 4099, 4100, 4101
4102, 4103, 4104, 4105, 4106, 4107, 4108, 4109, 4110, 4111, 4112, 4113, 4114, 4115, 4116, 4117
4118, 4119, 4120, 4121, 4122, 4123, 4124, 4125, 4126, 4127, 4128, 4129, 4130, 4131, 4132, 4133
4134, 4135, 4136, 4137, 4138, 4139, 4140, 4141, 4142, 4143, 4144, 4145, 4146, 4147, 4148, 4149
4150, 4151, 4152, 4153, 4154, 4155, 4156, 4157, 4158, 4159, 4160, 4161, 4162, 4163, 4164, 4165
4166, 4167, 4168, 4169, 4170, 4171, 4172, 4173, 4174, 4175, 4176, 4177, 4178, 4179, 4180, 4181
4182, 4183, 4184, 4185, 4186, 4187, 4188, 4189, 4190, 4191, 4192, 4193, 4194, 4195, 4196, 4197
4198, 4199, 4200, 4201, 4202, 4203, 4204, 4205, 4206, 4207, 4208, 4209, 4210, 4211, 4212, 4213
4214, 4215, 4216, 4217, 4218, 4219, 4220, 4221, 4222, 4223, 4224, 4225, 4226, 4227, 4228, 4229
4230, 4231, 4232, 4233, 4234, 4235, 4236, 4237, 4238, 4239, 4240, 4241, 4242, 4243, 4244, 4245
4246, 4247, 4248, 4249, 4250, 4251, 4252, 4253, 4254, 4255, 4256, 4257, 4258, 4259, 4260, 4261
4262, 4263, 4264, 4265, 4266, 4267, 4268, 4269, 4270, 4271, 4272, 4273, 4274, 4275, 4276, 4277
4278, 4279, 4280, 4281, 4282, 4283, 4284, 4285, 4286, 4287, 4288, 4289, 4290, 4291, 4292, 4293
4294, 4295, 4296, 4297, 4298, 4299, 4300, 4301, 4302, 4303, 4304, 4305, 4306, 4307, 4308, 4309
4310, 4311, 4312, 4313, 4314, 4315, 4316, 4317, 4318, 4319, 4320, 4321, 4322, 4323, 4324, 4325
** ... 280 like lines cut

*Shell Section, ELSET=set2, MATERIAL=C40/50
200.0

*End Part

*ASSEMBLY, NAME=CompisteIGriderBridgeSpans20_SA

*INSTANCE, NAME=CompisteIGriderBridgeSpans20_SA-1, PART=CompisteIGriderBridgeSpans20_SA

*END INSTANCE


*END ASSEMBLY

**
** MATERIALS
**
*Material, name=C40/50
*Density
2.5e-09,
*Elastic
35000.0, 0.2
*Material, name=S355
*Density
7.8e-09,
*Elastic
210000.0, 0.3
*Material, name=Rigid
*Elastic
100000000.0, 0.0
**
** BOUNDARY CONDITIONS
**

*Step, name=Step-1, nlgeom=NO, inc=5
*Static, direct
0.2, 1.,
**
** OUTPUT REQUESTS
**
*RESTART, WRITE, FREQUENCY=0
*OUTPUT, FIELD, VARIABLE=PRESELECT
*OUTPUT, HISTORY, VARIABLE=PRESELECT
*END STEP
