*Heading
** Generated by MatchFEM tool. The Grid

*Part, name=Cementerio_Mompox_sdb
*NODE
5,-115353.0,2131.4305,  3100.0
6,-115353.0,27463.794,  3100.0
7,-125393.91,27463.794,  3100.0
8,-125393.91,2131.4305,  3100.0
21,-115353.0,1981.4305000000002,  6200.0
22,-115353.0,27463.794,  6200.0
23,-125393.91,27463.794,  6200.0
24,-125393.91,1981.4305000000002,  6200.0
48,-129110.82999999999,16374.195,  3100.0
52,-129110.82999999999,13281.644999999999,  3100.0
61,-125393.91,27463.794,     0.0
62,-120366.5,27463.794,     0.0
63,-120366.5,27463.794,  3100.0
64,-115353.0,27463.794,     0.0
65,-125393.91,21914.78,     0.0
66,-125393.91,21914.78,  3100.0
67,-120366.5,21914.778,     0.0
68,-120366.5,21914.778,  3100.0
69,-115353.0,21914.78,     0.0
70,-115353.0,21914.78,  3100.0
** ... 607 like lines cut

*ELEMENT,  TYPE=B31
202934,      61,       7
202936,      62,      63
202938,      64,       6
202940,      65,      66
202942,      67,      68
202944,      69,      70
202946,      71,      72
202948,      73,      74
202950,      75,      76
202952,      77,      78
202954,      79,      80
202956,      81,      82
202958,      83,      84
202960,      85,       8
202962,      86,      87
202964,      88,       5
203071,      89,      90
203073,      91,      92
216753,       7,      23
216755,      63,     203
** ... 386 like lines cut

*ELEMENT,  TYPE=S4R
546,     122,     739,     740,     741
547,     741,     740,     742,     743
548,     743,     742,     744,       7
549,     739,     745,     746,     740
550,     740,     746,     747,     742
551,     742,     747,     748,     744
552,     745,     749,     750,     746
553,     746,     750,     751,     747
554,     747,     751,     752,     748
555,     749,     753,     754,     750
556,     750,     754,     755,     751
557,     751,     755,     756,     752
558,     753,     123,     757,     754
559,     754,     757,     758,     755
560,     755,     758,      63,     756
561,     123,     759,     760,     757
562,     757,     760,     761,     758
563,     758,     761,     762,      63
564,     759,     763,     764,     760
565,     760,     764,     765,     761
** ... 496 like lines cut

*ELSET, ELSET=set0
216753,216755,216757,202934,216759,202936,216761,202938,216763,202940,216765,202942,216767,202944,203073,202946
216769,202948,203071,202950,216771,202952,216773,202954,216775,202956,216777,202958,216779,202960,216781,202962
216783,202964,216785,216787
*ELSET, ELSET=set1
1058,1059,1066,1067,1321,1322,1323,1324,1325,1326,1327,1328,1329,1330,1380,1381
1382,1383,1384,1385,1386,1387,1388,1389,1390,1391,1392,1393,1394,1395,1396,1397
1398,1399,1400,1401,1402,1403,1404,1405,1406,1407,1408,1409, 927, 928, 929, 930
 931, 932, 933, 934, 935, 936,1460,1461,1462,1463,1464,1465,1466,1467,1468,1469
 986, 987, 988, 989, 990, 991, 992, 993, 994, 995, 996, 997, 998, 999,1000,1001
1002,1003,1004,1005,1006,1007,1008,1009,1010,1011,1012,1013,1014,1015
*ELSET, ELSET=set2
1169,1170,1171,1172,1173,1174,1175,1176,1177,1178,1179,1180,1567,1568,1569,1570
1571,1572,1573,1574,1575,1576, 937, 938, 939,1577,1578,1579,1580,1581,1582,1583
1331,1332,1333,1584,1621,1622,1623,1624,1625,1626,1115,1116,1629,1630,1631,1632
1117,1118,1119,1120,1121,1122,1123,1124,1125,1126,1127,1128,1129,1130,1131,1132
1627,1628
*ELSET, ELSET=set3
 940, 941, 942, 943, 944, 945, 946, 947, 948, 949,1334,1335,1336,1337,1338,1339
1340,1341,1342,1343,1088,1089,1090,1091,1092,1093,1094,1095
*ELSET, ELSET=set4
1703,1704,1705,1706,1707,1708,1709,1710,1711,1712,1585,1586,1587,1588,1589, 950
 951, 952,1590,1591,1592,1593,1594,1595,1596,1344,1345,1346,1597,1598,1599,1600
1601,1602,1143,1713,1133,1134,1135,1136,1137,1714,1138,1139,1140,1141,1142,1144
1145,1146,1147,1148,1149,1150
*ELSET, ELSET=set5
1152,1153,1154,1155,1156,1163,1164,1165,1166,1167,1168,1181,1182,1183,1184,1185
1186, 953, 954, 955,1347,1348,1349,1603,1604,1605,1606,1607,1608,1609,1610,1611
1612,1613,1614,1615,1616,1617,1618,1619,1620,1633,1634,1635,1636,1637,1638,1151
*ELSET, ELSET=set6
 967,1375,1364,1365,1366, 956, 957, 958, 959, 960, 961, 962, 963, 964, 965,1350
1351,1352,1353,1354,1355,1356,1357,1358,1359,1360, 968, 969, 970, 971, 972, 973
 974, 975, 976, 977, 978, 979, 980, 981, 982, 983, 984, 985,1362,1367,1368,1373
1374,1369,1376,1377,1378,1379,1370,1371,1363,1372,1361, 966
*ELSET, ELSET=set7
1024,1025,1410,1411,1412,1413,1414,1415,1416,1417,1418,1419,1016,1017,1018,1019
1020,1021,1022,1023
*ELSET, ELSET=set8
 546, 547, 548, 549, 550, 551, 552, 553, 554, 555, 556, 557, 558, 559, 560, 561
 562, 563, 564, 565, 566, 567, 568, 569, 570, 571, 572, 573, 574, 575, 576, 577
 578, 579, 580, 581, 582, 583, 584, 585, 586, 587, 588, 589, 590, 591, 592, 593
 594, 595, 596, 597, 598, 599, 600, 601, 602, 603, 604, 605, 606, 607, 608, 609
 610, 611, 630, 631, 632, 633, 634, 635, 636, 637, 638, 639, 640, 641, 660, 661
 662, 663, 664, 665, 666, 667, 668, 669, 670, 671, 672, 673, 674, 675, 676, 677
 678, 679, 680, 681, 682, 683, 684, 685, 686, 687, 688, 689, 690, 691, 692, 693
 694, 695, 696, 697, 698, 699, 700, 701, 702, 703, 704, 705, 706, 707, 708, 709
 710, 711, 712, 713, 714, 715, 716, 717, 718, 719, 720, 721, 722, 723, 724, 725
 726, 727, 728, 729, 730, 731, 732, 733, 734, 735, 736, 737, 738, 739, 740, 741
 742, 743, 744, 745, 746, 747, 748, 749, 750, 751, 752, 753, 754, 755, 756, 757
 758, 759, 760, 761, 762, 763, 764, 765, 766, 767, 768, 769, 770, 771, 772, 773
 774, 775, 776, 777, 778, 779, 780, 781, 782, 783, 784, 785, 786, 787, 788, 789
 790, 791, 792, 793, 794, 795, 796, 797, 798, 799, 800, 801, 802, 803, 804, 805
 806, 807, 808, 809, 810, 811, 812, 813, 814, 815, 816, 817, 818, 819, 820, 821
 822, 823, 824, 825, 826, 827,3238,3239,3240,3241,3242,3243,3244,3245,3246,3247
3248,3249,3250,3251,3252,3253,3254,3255,3256,3257,3258,3259,3260,3261,3262,3263
3264,3265,3266,3267,3268,3269,3270,3271,3272,3273,3274,3275,3276,3277,3278,3279
3280,3281,3282,3283,3284,3285,3286,3287,3288,3289,3290,3291,3292,3293,3294,3295
3296,3297,3298,3299,3300,3301,3302,3303,3304,3305,3306,3307,3308,3309,3310,3311
** ... 13 like lines cut
** Section: C 30x40cm_A_4000Psi  Profile: C 30x40cm_A_4000Psi
*Beam General Section, elset=set0, material=A_4000Psi, section=RECT
400.0, 300.0
1.0, 0.0, 0.0
** Section: V 20x45cm_A_4000Psi  Profile: V 20x45cm_A_4000Psi
*Beam General Section, elset=set1, material=A_4000Psi, section=RECT
450.0, 200.0
0.0, 1.0, 0.0
** Section: V 20x45cm_A_4000Psi  Profile: V 20x45cm_A_4000Psi
*Beam General Section, elset=set2, material=A_4000Psi, section=RECT
450.0, 200.0
1.0, 0.0, 0.0
** Section: V 30x45cm_A_4000Psi  Profile: V 30x45cm_A_4000Psi
*Beam General Section, elset=set3, material=A_4000Psi, section=RECT
450.0, 300.0
0.0, -1.0, 0.0
** Section: V 20x45cm_A_4000Psi  Profile: V 20x45cm_A_4000Psi
*Beam General Section, elset=set4, material=A_4000Psi, section=RECT
450.0, 200.0
-1.0, 0.0, 0.0
** Section: V 30x45cm_A_4000Psi  Profile: V 30x45cm_A_4000Psi
*Beam General Section, elset=set5, material=A_4000Psi, section=RECT
450.0, 300.0
1.0, 0.0, 0.0
** Section: V 30x45cm_A_4000Psi  Profile: V 30x45cm_A_4000Psi
*Beam General Section, elset=set6, material=A_4000Psi, section=RECT
450.0, 300.0
0.0, 1.0, 0.0
** Section: V 20x45cm_A_4000Psi  Profile: V 20x45cm_A_4000Psi
*Beam General Section, elset=set7, material=A_4000Psi, section=RECT
450.0, 200.0
0.0, -1.0, 0.0
*Shell Section, ELSET=set8, MATERIAL=A_4000Psi
100.0

*End Part

*ASSEMBLY, NAME=Cementerio_Mompox_sdb 

*INSTANCE, NAME=Cementerio_Mompox_sdb-1, PART=Cementerio_Mompox_sdb 

*END INSTANCE

*NSET, NSET=BCnode-48, instance=Cementerio_Mompox_sdb-1
  48,
*NSET, NSET=BCnode-52, instance=Cementerio_Mompox_sdb-1
  52,
*NSET, NSET=BCnode-61, instance=Cementerio_Mompox_sdb-1
  61,
*NSET, NSET=BCnode-62, instance=Cementerio_Mompox_sdb-1
  62,
*NSET, NSET=BCnode-64, instance=Cementerio_Mompox_sdb-1
  64,
*NSET, NSET=BCnode-65, instance=Cementerio_Mompox_sdb-1
  65,
*NSET, NSET=BCnode-67, instance=Cementerio_Mompox_sdb-1
  67,
*NSET, NSET=BCnode-69, instance=Cementerio_Mompox_sdb-1
  69,
*NSET, NSET=BCnode-71, instance=Cementerio_Mompox_sdb-1
  71,
*NSET, NSET=BCnode-73, instance=Cementerio_Mompox_sdb-1
  73,
*NSET, NSET=BCnode-75, instance=Cementerio_Mompox_sdb-1
  75,
*NSET, NSET=BCnode-77, instance=Cementerio_Mompox_sdb-1
  77,
*NSET, NSET=BCnode-79, instance=Cementerio_Mompox_sdb-1
  79,
*NSET, NSET=BCnode-81, instance=Cementerio_Mompox_sdb-1
  81,
*NSET, NSET=BCnode-83, instance=Cementerio_Mompox_sdb-1
  83,
*NSET, NSET=BCnode-85, instance=Cementerio_Mompox_sdb-1
  85,
*NSET, NSET=BCnode-86, instance=Cementerio_Mompox_sdb-1
  86,
*NSET, NSET=BCnode-88, instance=Cementerio_Mompox_sdb-1
  88,
*NSET, NSET=BCnode-89, instance=Cementerio_Mompox_sdb-1
  89,
*NSET, NSET=BCnode-91, instance=Cementerio_Mompox_sdb-1
  91,
*NSET, NSET=BCnode-311, instance=Cementerio_Mompox_sdb-1
 311,
*NSET, NSET=BCnode-312, instance=Cementerio_Mompox_sdb-1
 312,

*END ASSEMBLY

*MATERIAL, NAME=A_4000Psi
*DENSITY
2.4473189e-09,
*ELASTIC, TYPE=ISOTROPIC
20636.9, 0.2
**
** BOUNDARY CONDITIONS
**
** Name: BC-1 Type: Displacement/Rotation
*Boundary
BCnode-48, 3, 3
** Name: BC-2 Type: Displacement/Rotation
*Boundary
BCnode-52, 3, 3
** Name: BC-3 Type: Displacement/Rotation
*Boundary
BCnode-61, 1, 1
BCnode-61, 2, 2
BCnode-61, 3, 3
BCnode-61, 4, 4
BCnode-61, 5, 5
BCnode-61, 6, 6
** Name: BC-4 Type: Displacement/Rotation
*Boundary
BCnode-62, 1, 1
BCnode-62, 2, 2
BCnode-62, 3, 3
BCnode-62, 4, 4
BCnode-62, 5, 5
BCnode-62, 6, 6
** Name: BC-5 Type: Displacement/Rotation
*Boundary
BCnode-64, 1, 1
BCnode-64, 2, 2
BCnode-64, 3, 3
BCnode-64, 4, 4
BCnode-64, 5, 5
BCnode-64, 6, 6
** Name: BC-6 Type: Displacement/Rotation
*Boundary
BCnode-65, 1, 1
BCnode-65, 2, 2
BCnode-65, 3, 3
BCnode-65, 4, 4
BCnode-65, 5, 5
BCnode-65, 6, 6
** Name: BC-7 Type: Displacement/Rotation
*Boundary
BCnode-67, 1, 1
BCnode-67, 2, 2
BCnode-67, 3, 3
BCnode-67, 4, 4
BCnode-67, 5, 5
BCnode-67, 6, 6
** Name: BC-8 Type: Displacement/Rotation
*Boundary
BCnode-69, 1, 1
BCnode-69, 2, 2
BCnode-69, 3, 3
BCnode-69, 4, 4
BCnode-69, 5, 5
BCnode-69, 6, 6
** Name: BC-9 Type: Displacement/Rotation
*Boundary
BCnode-71, 1, 1
BCnode-71, 2, 2
BCnode-71, 3, 3
BCnode-71, 4, 4
BCnode-71, 5, 5
BCnode-71, 6, 6
** Name: BC-10 Type: Displacement/Rotation
*Boundary
BCnode-73, 1, 1
BCnode-73, 2, 2
BCnode-73, 3, 3
BCnode-73, 4, 4
BCnode-73, 5, 5
BCnode-73, 6, 6
** Name: BC-11 Type: Displacement/Rotation
*Boundary
BCnode-75, 1, 1
BCnode-75, 2, 2
BCnode-75, 3, 3
BCnode-75, 4, 4
BCnode-75, 5, 5
BCnode-75, 6, 6
** Name: BC-12 Type: Displacement/Rotation
*Boundary
BCnode-77, 1, 1
BCnode-77, 2, 2
BCnode-77, 3, 3
BCnode-77, 4, 4
BCnode-77, 5, 5
BCnode-77, 6, 6
** Name: BC-13 Type: Displacement/Rotation
*Boundary
BCnode-79, 1, 1
BCnode-79, 2, 2
BCnode-79, 3, 3
BCnode-79, 4, 4
BCnode-79, 5, 5
BCnode-79, 6, 6
** Name: BC-14 Type: Displacement/Rotation
*Boundary
BCnode-81, 1, 1
BCnode-81, 2, 2
BCnode-81, 3, 3
BCnode-81, 4, 4
BCnode-81, 5, 5
BCnode-81, 6, 6
** Name: BC-15 Type: Displacement/Rotation
*Boundary
BCnode-83, 1, 1
BCnode-83, 2, 2
BCnode-83, 3, 3
BCnode-83, 4, 4
BCnode-83, 5, 5
BCnode-83, 6, 6
** Name: BC-16 Type: Displacement/Rotation
*Boundary
BCnode-85, 1, 1
BCnode-85, 2, 2
BCnode-85, 3, 3
BCnode-85, 4, 4
BCnode-85, 5, 5
BCnode-85, 6, 6
** Name: BC-17 Type: Displacement/Rotation
*Boundary
BCnode-86, 1, 1
BCnode-86, 2, 2
BCnode-86, 3, 3
BCnode-86, 4, 4
BCnode-86, 5, 5
BCnode-86, 6, 6
** Name: BC-18 Type: Displacement/Rotation
*Boundary
BCnode-88, 1, 1
BCnode-88, 2, 2
BCnode-88, 3, 3
BCnode-88, 4, 4
BCnode-88, 5, 5
BCnode-88, 6, 6
** Name: BC-19 Type: Displacement/Rotation
*Boundary
BCnode-89, 1, 1
BCnode-89, 2, 2
BCnode-89, 3, 3
BCnode-89, 4, 4
BCnode-89, 5, 5
BCnode-89, 6, 6
** Name: BC-20 Type: Displacement/Rotation
*Boundary
BCnode-91, 1, 1
BCnode-91, 2, 2
BCnode-91, 3, 3
BCnode-91, 4, 4
BCnode-91, 5, 5
BCnode-91, 6, 6
** Name: BC-21 Type: Displacement/Rotation
*Boundary
BCnode-311, 3, 3
** Name: BC-22 Type: Displacement/Rotation
*Boundary
BCnode-312, 3, 3
*Step, name=Step-1, nlgeom=NO, inc=5
*Static, direct
0.2, 1.,
**
** LOADS
**
**
** OUTPUT REQUESTS
**
*RESTART, WRITE, FREQUENCY=0
**
** FIELD OUTPUT
**
*OUTPUT, FIELD, VARIABLE=PRESELECT
**
** HISTORY OUTPUT
**
*OUTPUT, HISTORY, VARIABLE=PRESELECT
*END STEP
