*Heading
** Generated by MatchFEM tool. The Grid

*Part, name=Loads types_sdb
*NODE
1, -9000.0, -5000.0,     0.0
2, -9000.0, -5000.0,  3000.0
3, -9000.0, -5000.0,  6000.0
4, -9000.0,     0.0,     0.0
5, -9000.0,     0.0,  3000.0
6, -9000.0,     0.0,  6000.0
7, -9000.0,  5000.0,     0.0
8, -9000.0,  5000.0,  3000.0
9, -9000.0,  5000.0,  6000.0
10, -3000.0, -5000.0,     0.0
11, -3000.0, -5000.0,  3000.0
12, -3000.0, -5000.0,  6000.0
13, -3000.0,     0.0,     0.0
14, -3000.0,     0.0,  3000.0
15, -3000.0,     0.0,  6000.0
16, -3000.0,  5000.0,     0.0
17, -3000.0,  5000.0,  3000.0
18, -3000.0,  5000.0,  6000.0
37, -9000.0,  6000.0,  3000.0
38, -3000.0,  6000.0,  3000.0

*ELEMENT,  TYPE=B31
3,       4,       5
5,       7,       8
7,      10,      11
8,      11,      12
9,      13,      14
10,      14,      15
11,      16,      17
12,      17,      18
25,       2,      11
26,       3,      12
31,       5,      14
32,       6,      15
37,       8,      17
38,       9,      18
43,       2,       5
44,       3,       6
45,       5,       8
46,       6,       9
47,      11,      14
48,      12,      15
** ... 9 like lines cut

*ELEMENT,  TYPE=S4R
1,      11,       2,       5,      14
2,      14,       5,       8,      17
62,      17,       8,      37,      38
4,      12,       3,       6,      15
63,      15,       6,       9,      18

*ELSET, ELSET=set0
   3,   5,   7,   8,   9,  10,  11,  12,  16
*ELSET, ELSET=set1
  32,  37,  38,  25,  26,  60,  31
*ELSET, ELSET=set2
  43,  44,  45,  46,  47,  48,  49,  50,  59
*ELSET, ELSET=set3
  61,
*ELSET, ELSET=set4
  13,  14,  15
*ELSET, ELSET=set5
   1,   2,   4,  62,  63
** Section: Column_A_4000Psi  Profile: Column_A_4000Psi
*Beam General Section, elset=set0, material=A_4000Psi, section=RECT
500.0, 200.0
1.0, 0.0, 0.0
** Section: Beam_A992Fy50  Profile: Beam_A992Fy50
*Beam General Section, elset=set1, material=A992Fy50, section=I
200.0, 304.8, 127.0, 50.0, 9.652000000000001, 9.652000000000001, 6.35
0.0, 1.0, 0.0
** Section: Beam_A992Fy50  Profile: Beam_A992Fy50
*Beam General Section, elset=set2, material=A992Fy50, section=I
200.0, 304.8, 127.0, 50.0, 9.652000000000001, 9.652000000000001, 6.35
-1.0, 0.0, 0.0
** Section: Beam_A992Fy50  Profile: Beam_A992Fy50
*Beam General Section, elset=set3, material=A992Fy50, section=I
200.0, 304.8, 127.0, 50.0, 9.652000000000001, 9.652000000000001, 6.35
1.0, 0.0, 0.0
** Section: Column_A_4000Psi  Profile: Column_A_4000Psi
*Beam General Section, elset=set4, material=A_4000Psi, section=RECT
500.0, 200.0
-1.0, 0.0, 0.0
*Shell Section, ELSET=set5, MATERIAL=A_4000Psi
200.0

*End Part

*ASSEMBLY, NAME=Loads types_sdb 

*INSTANCE, NAME=Loads types_sdb-1, PART=Loads types_sdb 

*END INSTANCE

*NSET, NSET=BCnode-1, instance=Loads types_sdb-1
   1,
*NSET, NSET=BCnode-4, instance=Loads types_sdb-1
   4,
*NSET, NSET=BCnode-7, instance=Loads types_sdb-1
   7,
*NSET, NSET=BCnode-10, instance=Loads types_sdb-1
  10,
*NSET, NSET=BCnode-13, instance=Loads types_sdb-1
  13,
*NSET, NSET=BCnode-16, instance=Loads types_sdb-1
  16,
*NSET, NSET=LoadNode-37, instance=Loads types_sdb-1
  37,
*NSET, NSET=LoadNode-38, instance=Loads types_sdb-1
  38,
*ELSET, ELSET=LoadFrame-44, instance=Loads types_sdb-1
  44,
*ELSET, ELSET=LoadFrame-46, instance=Loads types_sdb-1
  46,
*ELSET, ELSET=LoadShell-1, instance=Loads types_sdb-1
   1,
*ELSET, ELSET=LoadShell-63, instance=Loads types_sdb-1
  63,
*Surface, type=ELEMENT, name=LoadShell-1
LoadShell-1, SPOS
*Surface, type=ELEMENT, name=LoadShell-63
LoadShell-63, SPOS

*END ASSEMBLY

*MATERIAL, NAME=A_4000Psi
*DENSITY
2.4027696e-09,
*ELASTIC, TYPE=ISOTROPIC
24855.578, 0.2
*MATERIAL, NAME=A992Fy50
*DENSITY
7.8490474e-09,
*ELASTIC, TYPE=ISOTROPIC
199947.98, 0.3
**
** BOUNDARY CONDITIONS
**
** Name: BC-1 Type: Displacement/Rotation
*Boundary
BCnode-1, 1, 1
BCnode-1, 2, 2
BCnode-1, 3, 3
BCnode-1, 4, 4
BCnode-1, 5, 5
BCnode-1, 6, 6
** Name: BC-2 Type: Displacement/Rotation
*Boundary
BCnode-4, 1, 1
BCnode-4, 2, 2
BCnode-4, 3, 3
** Name: BC-3 Type: Displacement/Rotation
*Boundary
BCnode-7, 1, 1
BCnode-7, 2, 2
BCnode-7, 3, 3
** Name: BC-4 Type: Displacement/Rotation
*Boundary
BCnode-10, 1, 1
BCnode-10, 2, 2
BCnode-10, 3, 3
BCnode-10, 4, 4
BCnode-10, 5, 5
BCnode-10, 6, 6
** Name: BC-5 Type: Displacement/Rotation
*Boundary
BCnode-13, 1, 1
BCnode-13, 2, 2
BCnode-13, 3, 3
** Name: BC-6 Type: Displacement/Rotation
*Boundary
BCnode-16, 1, 1
BCnode-16, 2, 2
BCnode-16, 3, 3
*Step, name=Step-1, nlgeom=NO, inc=5
*Static, direct
0.2, 1.,
**
** LOADS
**
*LOAD CASE, NAME=DEAD
** 
** Name: Load-f93e10d0   Type: Concentrated force
*CLOAD
LoadNode-37, 3, -15000.0
** 
** Name: Load-319139e0   Type: Line load
*DLOAD
LoadFrame-44, PZ, -10.0
** 
** Name: Load-6c66a194   Type: Pressure/Traction
*DSLOAD
LoadShell-1, TRVEC, -20.0, 0.0, 0.0, 1.0
*END LOAD CASE
*LOAD CASE, NAME=LIVE
** 
** Name: Load-61b9fa2c   Type: Concentrated force
*CLOAD
LoadNode-38, 3, -25000.0
** 
** Name: Load-28eddf23   Type: Line load
*DLOAD
LoadFrame-46, PZ, -7.5
** 
** Name: Load-38676ee4   Type: Pressure/Traction
*DSLOAD
LoadShell-63, TRVEC, -15.0, 0.0, 0.0, 1.0
*END LOAD CASE
**
** OUTPUT REQUESTS
**
*RESTART, WRITE, FREQUENCY=0
**
** FIELD OUTPUT
**
*OUTPUT, FIELD, VARIABLE=PRESELECT
**
** HISTORY OUTPUT
**
*OUTPUT, HISTORY, VARIABLE=PRESELECT
*END STEP
