*Heading
** Generated by MatchFEM tool. The Grid

*Part, name=slab_sdb
*NODE
1,-12000.0,-12000.0,     0.0
2,-11000.0,-12000.0,     0.0
3,-11000.0,-11000.0,     0.0
4,-12000.0,-11000.0,     0.0
5,-11000.0,-10000.0,     0.0
6,-12000.0,-10000.0,     0.0
7,-10000.0,-12000.0,     0.0
8,-10000.0,-11000.0,     0.0
9,-10000.0,-10000.0,     0.0
10,-11000.0, -8000.0,     0.0
11,-12000.0, -8000.0,     0.0
12,-11000.0, -6000.0,     0.0
13,-12000.0, -6000.0,     0.0
14,-10000.0, -8000.0,     0.0
15,-10000.0, -6000.0,     0.0
16,-11000.0, -5000.0,     0.0
17,-12000.0, -5000.0,     0.0
18,-11000.0, -4000.0,     0.0
19,-12000.0, -4000.0,     0.0
20,-10000.0, -5000.0,     0.0
** ... 341 like lines cut

*ELEMENT,  TYPE=S4R
1,       1,       2,       3,       4
2,       4,       3,       5,       6
3,       2,       7,       8,       3
4,       3,       8,       9,       5
5,       6,       5,      10,      11
6,      11,      10,      12,      13
7,       5,       9,      14,      10
8,      10,      14,      15,      12
9,      13,      12,      16,      17
10,      17,      16,      18,      19
11,      12,      15,      20,      16
12,      16,      20,      21,      18
13,      19,      18,      22,      23
14,      23,      22,      24,      25
15,      18,      21,      26,      22
16,      22,      26,      27,      24
17,      25,      24,      28,      29
18,      29,      28,      30,      31
19,      24,      27,      32,      28
20,      28,      32,      33,      30
** ... 304 like lines cut

*ELSET, ELSET=set0
   1,   2,   3,   4,   5,   6,   7,   8,   9,  10,  11,  12,  13,  14,  15,  16
  17,  18,  19,  20,  21,  22,  23,  24,  25,  26,  27,  28,  29,  30,  31,  32
  33,  34,  35,  36,  37,  38,  39,  40,  41,  42,  43,  44,  45,  46,  47,  48
  49,  50,  51,  52,  53,  54,  55,  56,  57,  58,  59,  60,  61,  62,  63,  64
  65,  66,  67,  68,  69,  70,  71,  72,  73,  74,  75,  76,  77,  78,  79,  80
  81,  82,  83,  84,  85,  86,  87,  88,  89,  90,  91,  92,  93,  94,  95,  96
  97,  98,  99, 100, 101, 102, 103, 104, 105, 106, 107, 108, 109, 110, 111, 112
 113, 114, 115, 116, 117, 118, 119, 120, 121, 122, 123, 124, 125, 126, 127, 128
 129, 130, 131, 132, 133, 134, 135, 136, 137, 138, 139, 140, 141, 142, 143, 144
 145, 146, 147, 148, 149, 150, 151, 152, 153, 154, 155, 156, 157, 158, 159, 160
 161, 162, 163, 164, 165, 166, 167, 168, 169, 170, 171, 172, 173, 174, 175, 176
 177, 178, 179, 180, 181, 182, 183, 184, 185, 186, 187, 188, 189, 190, 191, 192
 193, 194, 195, 196, 197, 198, 199, 200, 201, 202, 203, 204, 205, 206, 207, 208
 209, 210, 211, 212, 213, 214, 215, 216, 217, 218, 219, 220, 221, 222, 223, 224
 225, 226, 227, 228, 229, 230, 231, 232, 233, 234, 235, 236, 237, 238, 239, 240
 241, 242, 243, 244, 245, 246, 247, 248, 249, 250, 251, 252, 253, 254, 255, 256
 257, 258, 259, 260, 261, 262, 263, 264, 265, 266, 267, 268, 269, 270, 271, 272
 273, 274, 275, 276, 277, 278, 279, 280, 281, 282, 283, 284, 285, 286, 287, 288
 289, 290, 291, 292, 293, 294, 295, 296, 297, 298, 299, 300, 301, 302, 303, 304
 305, 306, 307, 308, 309, 310, 311, 312, 313, 314, 315, 316, 317, 318, 319, 320
 321, 322, 323, 324
*Shell Section, ELSET=set0, MATERIAL=A_4000Psi
250.0

*End Part

*ASSEMBLY, NAME=slab_sdb 

*INSTANCE, NAME=slab_sdb-1, PART=slab_sdb 

*END INSTANCE

*NSET, NSET=BCnode-1, instance=slab_sdb-1
   1,
*NSET, NSET=BCnode-19, instance=slab_sdb-1
  19,
*NSET, NSET=BCnode-37, instance=slab_sdb-1
  37,
*NSET, NSET=BCnode-55, instance=slab_sdb-1
  55,
*NSET, NSET=BCnode-99, instance=slab_sdb-1
  99,
*NSET, NSET=BCnode-109, instance=slab_sdb-1
 109,
*NSET, NSET=BCnode-121, instance=slab_sdb-1
 121,
*NSET, NSET=BCnode-133, instance=slab_sdb-1
 133,
*NSET, NSET=BCnode-213, instance=slab_sdb-1
 213,
*NSET, NSET=BCnode-223, instance=slab_sdb-1
 223,
*NSET, NSET=BCnode-235, instance=slab_sdb-1
 235,
*NSET, NSET=BCnode-247, instance=slab_sdb-1
 247,
*NSET, NSET=BCnode-327, instance=slab_sdb-1
 327,
*NSET, NSET=BCnode-337, instance=slab_sdb-1
 337,
*NSET, NSET=BCnode-349, instance=slab_sdb-1
 349,
*NSET, NSET=BCnode-361, instance=slab_sdb-1
 361,

*END ASSEMBLY

*MATERIAL, NAME=A_4000Psi
*DENSITY
2.4027696e-09,
*ELASTIC, TYPE=ISOTROPIC
24855.578, 0.2
**
** BOUNDARY CONDITIONS
**
** Name: BC-1 Type: Displacement/Rotation
*Boundary
BCnode-1, 1, 1
BCnode-1, 2, 2
BCnode-1, 3, 3
BCnode-1, 4, 4
BCnode-1, 5, 5
BCnode-1, 6, 6
** Name: BC-2 Type: Displacement/Rotation
*Boundary
BCnode-19, 1, 1
BCnode-19, 2, 2
BCnode-19, 3, 3
BCnode-19, 4, 4
BCnode-19, 5, 5
BCnode-19, 6, 6
** Name: BC-3 Type: Displacement/Rotation
*Boundary
BCnode-37, 1, 1
BCnode-37, 2, 2
BCnode-37, 3, 3
BCnode-37, 4, 4
BCnode-37, 5, 5
BCnode-37, 6, 6
** Name: BC-4 Type: Displacement/Rotation
*Boundary
BCnode-55, 1, 1
BCnode-55, 2, 2
BCnode-55, 3, 3
BCnode-55, 4, 4
BCnode-55, 5, 5
BCnode-55, 6, 6
** Name: BC-5 Type: Displacement/Rotation
*Boundary
BCnode-99, 1, 1
BCnode-99, 2, 2
BCnode-99, 3, 3
BCnode-99, 4, 4
BCnode-99, 5, 5
BCnode-99, 6, 6
** Name: BC-6 Type: Displacement/Rotation
*Boundary
BCnode-109, 1, 1
BCnode-109, 2, 2
BCnode-109, 3, 3
BCnode-109, 4, 4
BCnode-109, 5, 5
BCnode-109, 6, 6
** Name: BC-7 Type: Displacement/Rotation
*Boundary
BCnode-121, 1, 1
BCnode-121, 2, 2
BCnode-121, 3, 3
BCnode-121, 4, 4
BCnode-121, 5, 5
BCnode-121, 6, 6
** Name: BC-8 Type: Displacement/Rotation
*Boundary
BCnode-133, 1, 1
BCnode-133, 2, 2
BCnode-133, 3, 3
BCnode-133, 4, 4
BCnode-133, 5, 5
BCnode-133, 6, 6
** Name: BC-9 Type: Displacement/Rotation
*Boundary
BCnode-213, 1, 1
BCnode-213, 2, 2
BCnode-213, 3, 3
BCnode-213, 4, 4
BCnode-213, 5, 5
BCnode-213, 6, 6
** Name: BC-10 Type: Displacement/Rotation
*Boundary
BCnode-223, 1, 1
BCnode-223, 2, 2
BCnode-223, 3, 3
BCnode-223, 4, 4
BCnode-223, 5, 5
BCnode-223, 6, 6
** Name: BC-11 Type: Displacement/Rotation
*Boundary
BCnode-235, 1, 1
BCnode-235, 2, 2
BCnode-235, 3, 3
BCnode-235, 4, 4
BCnode-235, 5, 5
BCnode-235, 6, 6
** Name: BC-12 Type: Displacement/Rotation
*Boundary
BCnode-247, 1, 1
BCnode-247, 2, 2
BCnode-247, 3, 3
BCnode-247, 4, 4
BCnode-247, 5, 5
BCnode-247, 6, 6
** Name: BC-13 Type: Displacement/Rotation
*Boundary
BCnode-327, 1, 1
BCnode-327, 2, 2
BCnode-327, 3, 3
BCnode-327, 4, 4
BCnode-327, 5, 5
BCnode-327, 6, 6
** Name: BC-14 Type: Displacement/Rotation
*Boundary
BCnode-337, 1, 1
BCnode-337, 2, 2
BCnode-337, 3, 3
BCnode-337, 4, 4
BCnode-337, 5, 5
BCnode-337, 6, 6
** Name: BC-15 Type: Displacement/Rotation
*Boundary
BCnode-349, 1, 1
BCnode-349, 2, 2
BCnode-349, 3, 3
BCnode-349, 4, 4
BCnode-349, 5, 5
BCnode-349, 6, 6
** Name: BC-16 Type: Displacement/Rotation
*Boundary
BCnode-361, 1, 1
BCnode-361, 2, 2
BCnode-361, 3, 3
BCnode-361, 4, 4
BCnode-361, 5, 5
BCnode-361, 6, 6
*Step, name=Step-1, nlgeom=NO, inc=5
*Static, direct
0.2, 1.,
**
** LOADS
**
**
** OUTPUT REQUESTS
**
*RESTART, WRITE, FREQUENCY=0
**
** FIELD OUTPUT
**
*OUTPUT, FIELD, VARIABLE=PRESELECT
**
** HISTORY OUTPUT
**
*OUTPUT, HISTORY, VARIABLE=PRESELECT
*END STEP
